38
Lattice="18.420413695 0.0 0.0 0.0 18.420413695 0.0 0.0 0.0 18.420413695" Properties=species:S:1:pos:R:3:tags:I:1 pbc="F F F"
Pd      11.01308087       7.30475618      12.50130893        0
Pd      10.15888251      10.01864582      12.45657407        1
Cu      12.12654237       9.11110183      12.19898669        2
Pd       8.53743949       7.92651182      12.16371700        3
Cu      11.00295449      11.92994418      11.82252310        4
Pd       8.93646789      12.50304010      11.81567502        5
Pd       7.58506662      10.31081278      11.85180816        6
Cu      11.56834010       6.14429250      10.78703076        7
Pd      12.90453962       7.81765711      10.67731107        8
Pd      12.12476612      10.55314316      10.56005347        9
Pd       9.40683859       6.00253808      10.54264138       10
Pd      10.47830595       8.45101129      10.30548876       11
Pd       6.97781104       7.05268985      10.29343578       12
Cu       8.16793484       8.92581562      10.21746581       13
Pd      10.81894200      13.02218074       9.98706082       14
Pd       9.51910574      10.84729220       9.98714307       15
Cu       8.69866021      13.30544527       9.84256111       16
Pd       6.02046787       9.43431214       9.98456357       17
Pd       7.05115180      11.87702223       9.77217142       18
Pd       8.27152716       8.40432140       5.95737348       19
Pd       9.88116885      10.49750350       6.25183647       20
Pd      10.84598979       8.11662601       6.56720363       21
Pd       7.40385337      11.11746685       5.91910477       22
Pd       9.50382335       5.91940634       6.60112362       23
Pd      11.37712788       6.54357989       8.64899816       24
Pd      11.44582299      11.36873036       8.11638083       25
Pd       9.00827623      12.41762447       7.87352501       26
Pd      12.40656354       8.98660974       8.43610058       27
Pd       6.30590349       7.86060695       7.85199348       28
Pd       7.94443530       9.96808898       8.11265088       29
Pd       5.51587408      10.59025548       7.74069966       30
Pd       8.90999191       7.57439369       8.42690146       31
Pd       7.61103350       5.39838347       8.42269533       32
Cu       6.30086235       9.30362522       6.21577799       33
Cu       7.43838846       6.48963576       6.58594670       34
Cu       6.84158639      12.27030722       7.63712123       35
Cu      10.25754848       9.49753337       8.19953434       36
Cu       9.73064102       5.11496843       8.57483290       37
